[TITLE]
;;Project Title/Notes

[OPTIONS]
;;Option             Value
FLOW_UNITS           CFS
INFILTRATION         GREEN_AMPT
FLOW_ROUTING         DYNWAVE
LINK_OFFSETS         DEPTH
MIN_SLOPE            0
ALLOW_PONDING        YES
SKIP_STEADY_STATE    NO

START_DATE           09/11/2018
START_TIME           23:00:00
REPORT_START_DATE    09/11/2018
REPORT_START_TIME    23:00:00
END_DATE             09/12/2018
END_TIME             07:21:00
SWEEP_START          09/11
SWEEP_END            09/12
DRY_DAYS             0
REPORT_STEP          00:05:00
WET_STEP             00:01:00
DRY_STEP             00:01:00
ROUTING_STEP         0:00:30 
RULE_STEP            00:00:00

INERTIAL_DAMPING     PARTIAL
NORMAL_FLOW_LIMITED  BOTH
FORCE_MAIN_EQUATION  H-W
VARIABLE_STEP        0.75
LENGTHENING_STEP     30
MIN_SURFAREA         12.566
MAX_TRIALS           8
HEAD_TOLERANCE       0.005
SYS_FLOW_TOL         5
LAT_FLOW_TOL         5
MINIMUM_STEP         0.5
THREADS              1

[EVAPORATION]
;;Data Source    Parameters
;;-------------- ----------------
CONSTANT         0.0
DRY_ONLY         NO

[RAINGAGES]
;;Name           Format    Interval SCF      Source    
;;-------------- --------- ------ ------ ----------
LickRun          VOLUME    0:05     1        TIMESERIES 9-11_LickRun    
ROA              VOLUME    0:05     1        TIMESERIES 9-11_ROA        
PetersCreek      VOLUME    0:05     1        TIMESERIES 9-11_PetersCreek
RCIT             VOLUME    0:05     1        TIMESERIES 9-11_RCIT       
RoanokeFire-EMS  VOLUME    0:05     1        TIMESERIES 9-11_RoanokeFire-EMS
StraussPark      VOLUME    0:05     1        TIMESERIES 9-11_StraussPark
HiddenValley     VOLUME    0:05     1        TIMESERIES 9-11_HiddenValley
ShrineHill       VOLUME    0:05     1        TIMESERIES 9-11_ShrineHill 
MillMountain     VOLUME    0:05     1        TIMESERIES 9-11_MillMountain
GardenCity       VOLUME    0:05     1        TIMESERIES 9-11_GardenCity 
Subcatchment_1   VOLUME    0:05     1        TIMESERIES SC1_Precip      
Subcatchment_2   VOLUME    0:05     1        TIMESERIES SC2_Precip      
Subcatchment_3   VOLUME    0:05     1        TIMESERIES SC3_Precip      
Subcatchment_4   VOLUME    0:05     1        TIMESERIES SC4_Precip      
Subcatchment_5   VOLUME    0:05     1        TIMESERIES SC5_Precip      
Subcatchment_6   VOLUME    0:05     1        TIMESERIES SC6_Precip      
Subcatchment_7   VOLUME    0:05     1        TIMESERIES SC7_Precip      
Subcatchment_8   VOLUME    0:05     1        TIMESERIES SC8_Precip      
Subcatchment_9   VOLUME    0:05     1        TIMESERIES SC9_Precip      
Subcatchment_10  VOLUME    0:05     1        TIMESERIES SC10_Precip     
Subcatchment_11  VOLUME    0:05     1        TIMESERIES SC11_Precip     
Subcatchment_12  VOLUME    0:05     1        TIMESERIES SC12_Precip     
Subcatchment_13  VOLUME    0:05     1        TIMESERIES SC13_Precip     
Subcatchment_14  VOLUME    0:05     1        TIMESERIES SC14_Precip     
Subcatchment_15  VOLUME    0:05     1        TIMESERIES SC15_Precip     
Subcatchment_16  VOLUME    0:05     1        TIMESERIES SC16_Precip     
Subcatchment_17  VOLUME    0:05     1        TIMESERIES SC17_Precip     
Subcatchment_18  VOLUME    0:05     1        TIMESERIES SC18_Precip     
Subcatchment_19  VOLUME    0:05     1        TIMESERIES SC19_Precip     
Subcatchment_20  VOLUME    0:05     1        TIMESERIES SC20_Precip     
Subcatchment_21  VOLUME    0:05     1        TIMESERIES SC21_Precip     
Subcatchment_22  VOLUME    0:05     1        TIMESERIES SC22_Precip     
Subcatchment_23  VOLUME    0:05     1        TIMESERIES SC23_Precip     
Subcatchment_24  VOLUME    0:05     1        TIMESERIES SC24_Precip     
Subcatchment_25  VOLUME    0:05     1        TIMESERIES SC25_Precip     
Subcatchment_26  VOLUME    0:05     1        TIMESERIES SC26_Precip     
Subcatchment_27  VOLUME    0:05     1        TIMESERIES SC27_Precip     
Subcatchment_28  VOLUME    0:05     1        TIMESERIES SC28_Precip     
Subcatchment_29  VOLUME    0:05     1        TIMESERIES SC29_Precip     
Subcatchment_30  VOLUME    0:05     1        TIMESERIES SC30_Precip     
Subcatchment_31  VOLUME    0:05     1        TIMESERIES SC31_Precip     
Subcatchment_32  VOLUME    0:05     1        TIMESERIES SC32_Precip     
Subcatchment_33  VOLUME    0:05     1        TIMESERIES SC33_Precip     
Subcatchment_34  VOLUME    0:05     1        TIMESERIES SC34_Precip     
Subcatchment_35  VOLUME    0:05     1        TIMESERIES SC35_Precip     
Subcatchment_36  VOLUME    0:05     1        TIMESERIES SC36_Precip     
Subcatchment_37  VOLUME    0:05     1        TIMESERIES SC37_Precip     
Subcatchment_38  VOLUME    0:05     1        TIMESERIES SC38_Precip     
Subcatchment_39  VOLUME    0:05     1        TIMESERIES SC39_Precip     
Subcatchment_40  VOLUME    0:05     1        TIMESERIES SC40_Precip     
Subcatchment_41  VOLUME    0:05     1        TIMESERIES SC41_Precip     
Subcatchment_42  VOLUME    0:05     1        TIMESERIES SC42_Precip     
Subcatchment_43  VOLUME    0:05     1        TIMESERIES SC43_Precip     
Subcatchment_44  VOLUME    0:05     1        TIMESERIES SC44_Precip     
Subcatchment_45  VOLUME    0:05     1        TIMESERIES SC45_Precip     
Subcatchment_46  VOLUME    0:05     1        TIMESERIES SC46_Precip     
Subcatchment_47  VOLUME    0:05     1        TIMESERIES SC47_Precip     
Subcatchment_48  VOLUME    0:05     1        TIMESERIES SC48_Precip     
Subcatchment_49  VOLUME    0:05     1        TIMESERIES SC49_Precip     
Subcatchment_50  VOLUME    0:05     1        TIMESERIES SC50_Precip     
Subcatchment_51  VOLUME    0:05     1        TIMESERIES SC51_Precip     
Subcatchment_52  VOLUME    0:05     1        TIMESERIES SC52_Precip     
Subcatchment_53  VOLUME    0:05     1        TIMESERIES SC53_Precip     
Subcatchment_54  VOLUME    0:05     1        TIMESERIES SC54_Precip     
Subcatchment_55  VOLUME    0:05     1        TIMESERIES SC55_Precip     
Subcatchment_56  VOLUME    0:05     1        TIMESERIES SC56_Precip     
Subcatchment_57  VOLUME    0:05     1        TIMESERIES SC57_Precip     

[SUBCATCHMENTS]
;;Name           Rain Gage        Outlet           Area     %Imperv  Width    %Slope   CurbLen  SnowPack        
;;-------------- ---------------- ---------------- -------- -------- -------- -------- -------- ----------------
1                Subcatchment_1   606811           83.05376904 10       1902.05735438824 4.67210216166786 0                        
2                Subcatchment_2   109269           107.725013 31       2479.45342470831 4.69247312729685 0                        
3                Subcatchment_3   605204           104.9176992 24       2137.80611308697 3.45910915193375 0                        
4                Subcatchment_4   605059           64.62113417 27       2181.09496847624 3.94674548884584 0                        
5                Subcatchment_5   605055           32.08292157 33       933.916356472044 4.90587479341375 0                        
6                Subcatchment_6   605057           19.49042041 25       921.413432211404 2.50184115567167 0                        
7                Subcatchment_7   605043           36.73197053 34       1264.92870798587 3.56464707982834 0                        
8                Subcatchment_8   606804           21.16740878 31       960.235557796523 2.87231069618121 0                        
9                Subcatchment_9   401004           132.4138593 30       2401.65520237773 3.03362078000392 0                        
10               Subcatchment_10  600120           150.2843808 30       3249.41050109607 2.31735338783465 0                        
11               Subcatchment_11  604892           68.06100045 11       1721.84121788334 4.2252943663875 0                        
12               Subcatchment_12  400590           52.45316227 18       1435.27093517055 1.12386793398903 0                        
13               Subcatchment_13  604902           113.7012957 17       2543.74089944585 3.50710651642124 0                        
14               Subcatchment_14  600172           288.9742055 30       3547.91719063171 2.6859827632505 0                        
15               Subcatchment_15  201453           382.2837406 65       4080.72049282183 1.48905447970213 0                        
16               Subcatchment_16  600130           112.6531237 28       2215.21332344585 2.50743389321542 0                        
17               Subcatchment_17  201335           185.995027 34       2675.60781265484 2.71713542722213 0                        
18               Subcatchment_18  604962           180.9805805 43       2496.09830263554 3.90702555485325 0                        
19               Subcatchment_19  604909           32.15613553 54       1183.52070691087 2.62895708589179 0                        
20               Subcatchment_20  604907           151.0488655 26       2565.09036510997 3.68138677542125 0                        
21               Subcatchment_21  604960           13.37750885 5        763.363796302916 3.7955350915154 0                        
22               Subcatchment_22  403241           114.8386942 45       2236.59864959094 2.05950460708446 0                        
23               Subcatchment_23  107725           255.6765897 67       3337.25519661473 2.10805276301696 0                        
24               Subcatchment_24  604906           45.060246 12       1401.00832108878 3.89066828460625 0                        
25               Subcatchment_25  604944           70.66086808 40       1754.4193950036 3.54434130833363 0                        
26               Subcatchment_26  400582           99.51195656 77       2082.00404124334 2.10011822461204 0                        
27               Subcatchment_27  201403           112.3987548 43       2212.71095244905 2.40905249212571 0                        
28               Subcatchment_28  200586           185.5737675 31       2843.16607188184 2.26439842948258 0                        
29               Subcatchment_29  201223           270.5755096 5        3433.113633 2.84710087877346 0                        
30               Subcatchment_30  604676           116.9087418 27       2256.66674385209 2.93435119221067 0                        
31               Subcatchment_31  604675           57.88630312 9        1587.93178817832 4.1117046652704 0                        
32               Subcatchment_32  604636           87.3636418 73       1950.78451829206 2.19526208739133 0                        
33               Subcatchment_33  403191           186.2367387 41       2848.24021770847 3.2479276320225 0                        
34               Subcatchment_34  201112           106.8628504 5        2157.53233195334 1.2712003434179 0                        
35               Subcatchment_35  604677           125.1923421 30       2055.01733566916 4.13258953279959 0                        
36               Subcatchment_36  604836           234.2934949 26       3194.65563681659 3.39944310426583 0                        
37               Subcatchment_37  201245           62.4218062 9.7016   1154.27726316309 1.72336946108073 0                        
38               Subcatchment_38  104270           63.44654613 39.89    1246.83559323205 2.86954207273037 0                        
39               Subcatchment_39  600654           443.1988251 36.57    10633.0469903071 4.80436722469587 0                        
40               Subcatchment_40  601065           137.5086499 18       2714.68101346422 3.88166010881398 0                        
41               Subcatchment_41  201247           90.41858357 20.28    2044.13705031684 2.92431192755103 0                        
42               Subcatchment_42  104000           63.97401306 55.68    2019.90573934061 2.50007221143229 0                        
43               Subcatchment_43  104308           52.27957249 25.125   1509.07195907432 2.40925196832483 0                        
44               Subcatchment_44  604863           211.3255768 37       3034.03067311588 3.89840617000915 0                        
45               Subcatchment_45  201875           83.75075571 78       4679.55318055714 2.63028574496286 0                        
46               Subcatchment_46  201358           31.6718452 19.1575  1174.57463658637 4.23983609905825 0                        
47               Subcatchment_47  103977           5.862636796 28.5     505.347859235359 1.79723850409571 0                        
48               Subcatchment_48  104327           21.96070121 94       978.063466605107 2.71188156409129 0                        
49               Subcatchment_49  201314           80.91645672 78       3754.84798878634 2.82397219604354 0                        
50               Subcatchment_50  201879           62.13295815 80.304   3101.10381678742 3.37111370714632 0                        
51               Subcatchment_51  201888           12.1044988 96       726.134951457372 1.64662621629225 0                        
52               Subcatchment_52  201378           1.759970257 95       276.883196302918 3.31520699202875 0                        
53               Subcatchment_53  606833           18.92834515 94       908.030128758953 1.80506063870216 0                        
54               Subcatchment_54  201933           7.173446968 95       609.304491405714 1.90665051205927 0                        
55               Subcatchment_55  201319           4.690139438 66.65    451.998311854458 2.3799958390888 0                        
56               Subcatchment_56  201318           15.21399892 90.47    814.077264733023 3.8769831868934 0                        
57               Subcatchment_57  201320           3.260367701 95       376.857555391371 2.30909051875833 0                        

[SUBAREAS]
;;Subcatchment   N-Imperv   N-Perv     S-Imperv   S-Perv     PctZero    RouteTo    PctRouted 
;;-------------- ---------- ---------- ---------- ---------- ---------- ---------- ----------
1                0.015      0.49       0.03       0.1        25         OUTLET    
2                0.018      0.5        0.03       0.1        25         OUTLET    
3                0.011      0.45       0.03       0.1        25         OUTLET    
4                0.011      0.33       0.03       0.1        25         OUTLET    
5                0.017      0.41       0.03       0.1        25         OUTLET    
6                0.011      0.41       0.03       0.1        25         OUTLET    
7                0.011      0.41       0.03       0.1        25         OUTLET    
8                0.0145     0.16       0.03       0.1        25         OUTLET    
9                0.011      0.41       0.03       0.1        25         OUTLET    
10               0.011      0.1        0.03       0.1        25         OUTLET    
11               0.011      0.34       0.03       0.1        25         OUTLET    
12               0.017      0.47       0.03       0.1        25         OUTLET    
13               0.016      0.36       0.03       0.1        25         OUTLET    
14               0.013      0.37       0.03       0.1        25         OUTLET    
15               0.01       0.1        0.03       0.1        25         OUTLET    
16               0.01       0.22       0.03       0.1        25         OUTLET    
17               0.01       0.31       0.03       0.1        25         OUTLET    
18               0.02       0.1        0.03       0.1        25         OUTLET    
19               0.019      0.35       0.03       0.1        25         OUTLET    
20               0.02       0.1        0.03       0.1        25         OUTLET    
21               0.016      0.12       0.03       0.1        25         OUTLET    
22               0.017      0.1        0.03       0.1        25         OUTLET    
23               0.011      0.45       0.03       0.1        25         OUTLET    
24               0.02       0.38       0.03       0.1        25         OUTLET    
25               0.02       0.47       0.03       0.1        25         OUTLET    
26               0.011      0.46       0.03       0.1        25         OUTLET    
27               0.011      0.41       0.03       0.1        25         OUTLET    
28               0.011      0.41       0.03       0.1        25         OUTLET    
29               0.02       0.32       0.03       0.1        25         OUTLET    
30               0.02       0.1        0.03       0.1        25         OUTLET    
31               0.013      0.1        0.03       0.1        25         OUTLET    
32               0.011      0.25       0.03       0.1        25         OUTLET    
33               0.014      0.41       0.03       0.1        25         OUTLET    
34               0.02       0.41       0.03       0.1        25         OUTLET    
35               0.011      0.1        0.03       0.1        25         OUTLET    
36               0.02       0.19       0.03       0.1        25         OUTLET    
37               0.02       0.35       0.03       0.1        25         OUTLET    
38               0.02       0.29       0.03       0.1        25         OUTLET    
39               0.011      0.5        0.03       0.1        25         OUTLET    
40               0.02       0.39       0.03       0.1        25         OUTLET    
41               0.02       0.36       0.03       0.1        25         OUTLET    
42               0.011      0.23       0.03       0.1        25         OUTLET    
43               0.02       0.32       0.03       0.1        25         OUTLET    
44               0.011      0.41       0.03       0.1        25         OUTLET    
45               0.011      0.32       0.03       0.1        25         OUTLET    
46               0.011      0.21       0.03       0.1        25         OUTLET    
47               0.011      0.41       0.03       0.1        25         OUTLET    
48               0.011      0.41       0.03       0.1        25         OUTLET    
49               0.011      0.41       0.03       0.1        25         OUTLET    
50               0.011      0.41       0.03       0.1        25         OUTLET    
51               0.011      0.41       0.03       0.1        25         OUTLET    
52               0.011      0.39       0.03       0.1        25         OUTLET    
53               0.011      0.28       0.03       0.1        25         OUTLET    
54               0.011      0.41       0.03       0.1        25         OUTLET    
55               0.011      0.32       0.03       0.1        25         OUTLET    
56               0.011      0.41       0.03       0.1        25         OUTLET    
57               0.011      0.41       0.03       0.1        25         OUTLET    

[INFILTRATION]
;;Subcatchment   Suction    Ksat       IMD       
;;-------------- ---------- ---------- ----------
1                7.75       0.175      0.35      
2                7.75       0.273      0.35      
3                7.75       0.2        0.35      
4                7.75       0.4        0.35      
5                7.75       0.273      0.35      
6                7.75       0.273      0.35      
7                7.75       0.273      0.35      
8                7.75       0.273      0.35      
9                7.75       0.273      0.35      
10               7.75       0.273      0.35      
11               7.75       0.273      0.35      
12               7.75       0.273      0.35      
13               7.75       0.273      0.35      
14               7.75       0.273      0.35      
15               7.75       0.273      0.35      
16               7.75       0.273      0.35      
17               7.75       0.273      0.35      
18               7.75       0.273      0.35      
19               7.75       0.273      0.35      
20               7.75       0.273      0.35      
21               7.75       0.273      0.35      
22               7.75       0.273      0.35      
23               7.75       0.273      0.35      
24               9.25       0.273      0.35      
25               7.75       0.273      0.35      
26               8.5        0.273      0.35      
27               7.75       0.273      0.35      
28               7.75       0.273      0.35      
29               7.75       0.273      0.35      
30               7.75       0.273      0.35      
31               7.75       0.273      0.35      
32               7.75       0.273      0.35      
33               7.75       0.273      0.35      
34               7.75       0.273      0.35      
35               7.75       0.273      0.35      
36               7.75       0.273      0.35      
37               7.75       0.273      0.35      
38               7.75       0.273      0.35      
39               7.75       0.273      0.35      
40               7.75       0.273      0.35      
41               7.75       0.273      0.35      
42               7.75       0.273      0.35      
43               7.75       0.273      0.35      
44               7.75       0.273      0.35      
45               7.75       0.273      0.35      
46               7.75       0.273      0.35      
47               7.75       0.273      0.35      
48               7.75       0.273      0.35      
49               7.75       0.273      0.35      
50               7.75       0.273      0.35      
51               7.75       0.273      0.35      
52               7.75       0.273      0.35      
53               7.75       0.273      0.35      
54               7.75       0.273      0.35      
55               7.75       0.273      0.35      
56               7.75       0.273      0.35      
57               7.75       0.273      0.35      

[JUNCTIONS]
;;Name           Elevation  MaxDepth   InitDepth  SurDepth   Aponded   
;;-------------- ---------- ---------- ---------- ---------- ----------
103977           910.166442869999 7          0          0          25        
103978           910.282168669999 0          0          0          25        
104000           915.595434569999 5.6        0          0          25        
104143           951.10876465 6.5        0          0          25        
104144           950.621363159999 6.25       0          0          25        
104253           938.253356929999 4.5        0          0          25        
104254           937.458740229999 5          0          0          25        
104261           945.669128419999 0          0          0          25        
104262           945.682056419999 0          0          0          25        
104270           945.932739259999 6.75       0          0          25        
104300           911.912807949999 0          0          0          25        
104301           911.935896549999 0          0          0          25        
104308           911.825139949999 0          0          0          25        
104326           911.481689449999 9          0          0          25        
104327           907.764305919999 0          0          0          25        
104334           913.22070068 6          0          0          25        
104345           913.901977539999 5          0          0          25        
104526           929.374274469999 4          0          0          25        
104527           929.200988769999 0          0          0          25        
104528           922.65887451 4          0          0          25        
104529           922.484765629999 3.9        0          0          25        
104531           913.10986328 0          0          0          25        
104532           911.887451169999 5          0          0          25        
104536           910.433567669999 0          0          0          25        
104537           910.443405069999 0          0          0          25        
104540           910.567722769999 0          0          0          25        
104867           1052.52982896 10         0          0          0         
104886           1081.3636553 7.5        0          0          0         
104906           1067.56260553999 8          0          0          0         
104915           1067.75035443999 7          0          0          0         
104968           1062.07543944999 14.5       0          0          0         
104993           1105.16216556 0          0          0          0         
104994           1104.89941406 0          0          0          0         
104995           1104.05419922 0          0          0          0         
105275           1097.59984499999 7.25       0          0          0         
105327           910.588380469999 0          0          0          25        
105346           917.255857209999 5.4        0          0          25        
105347           916.740460309999 5          0          0          25        
106886           1037.22704101999 20         0          0          0         
106887           1037.43925211999 19         0          0          0         
106890           1037.97607422 13.75      0          0          0         
107725           1078.65612792999 10         0          0          0         
109268           1147.60445258999 0          0          0          0         
109269           1162.88960887999 0          0          0          0         
200586           1080.44858887 37         0          0          0         
201112           966.620727539999 8.5        0          0          25        
201152           1097.67598889999 10         0          0          0         
201153           1097.51347989999 8          0          0          0         
201218           949.174804689999 8.5        0          0          25        
201219           952.078796389999 8          0          0          25        
201220           950.503051759999 6.5        0          0          25        
201221           958.574462889999 8          0          0          25        
201222           953.50164795 9.5        0          0          25        
201223           961.291381839999 7.5        0          0          25        
201241           939.360046389999 4          0          0          25        
201242           936.597717289999 4          0          0          25        
201245           945.800630419999 6.5        0          0          25        
201247           936.598498539999 6.8        0          0          25        
201251           931.291564939999 7          0          0          25        
201258           909.47930908 11.5       0          0          25        
201259           907.260043219999 11         0          0          25        
201266           915.058837889999 4          0          0          25        
201267           913.17531128 7.5        0          0          25        
201299           912.438171389999 0          0          0          25        
201308           912.668532189999 7          0          0          25        
201310           905.5      15         0          0          25        
201311           905.1      15         0          0          25        
201312           906.25     15         0          0          25        
201314           907.3619188 11         0          0          25        
201315           907.6265085 9          0          0          25        
201318           912.894055089999 9.69999999999999 0          0          25        
201319           912.822738989999 10         0          0          25        
201320           912.929768689999 10         0          0          25        
201321           912.839323189999 10         0          0          25        
201324           911.378372069999 19         0          0          0         
201326           906.758861019999 12         0          0          0         
201327           906.755113919999 12         0          0          25        
201329           1052.93808106 11         0          0          0         
201331           1054.31628417999 15         0          0          0         
201332           1054.51489257999 23         0          0          0         
201333           1062.19165038999 20.5       0          0          0         
201334           1052.71194206 13         0          0          0         
201335           1052.49768066 1.25       0          0          0         
201338           912.08422852 8          0          0          25        
201357           915.231262209999 7.5        0          0          25        
201358           911.336730959999 5.5        0          0          25        
201359           911.22302246 5.5        0          0          25        
201360           910.980651859999 5.5        0          0          25        
201362           910.525817869999 6          0          0          25        
201363           910.947570799999 6          0          0          25        
201364           911.10638428 6          0          0          25        
201377           924.18416734 10.5       0          0          25        
201378           924.20556924 9.4        0          0          25        
201380           912.438171389999 5          0          0          25        
201397           1059.16050292999 20         0          0          0         
201403           1044.07177733999 30.5       0          0          0         
201405           1073.08347383999 21         0          0          0         
201420           1067.35326283999 8          0          0          0         
201421           1067.34259723999 5.5        0          0          0         
201453           1090.81379672 15         0          0          0         
201455           1090.67138672 13         0          0          0         
201456           1082.85422552 11         0          0          0         
201457           1062.37032312 8.5        0          0          0         
201458           1065.49169872 12.5       0          0          0         
201871           1039.97441958 1.25       0          0          0         